18

C 1.1835 -0.1591 0
C 1.7418 1.0818 0
N 3.0415 1.0755 0
N 3.4138 -0.2214 -0
C 2.315 -0.9146 -0
H 1.2418 2.0401 0
H 2.3907 -1.994 -0
C -1.5346 1.5821 -0
O -2.9161 1.934 -0
C -1.3766 0.1016 0
N -2.4317 -0.6622 0
N -1.9776 -1.9313 0
C -0.6796 -1.8546 0
C -0.1912 -0.5828 0
H -0.1156 -2.7779 0
H -1.0738 2.0105 -0.8964
H -1.0738 2.0105 0.8964
H -2.9723 2.9064 -0
