24
# a molecule to add to a 1-D rod MOF
C       6.924837    1.608514    4.525508
C       2.262969    7.345486    2.370767
C       7.899919    2.605668    2.823390
C       1.287866    6.348332    4.072885
C       6.801693    2.620585    3.625413
C       2.386113    6.333415    3.270862
C       5.655780    3.584125    3.533403
C       3.532026    5.369875    3.362872
C       3.942876    4.894955    4.602939
C       5.244930    4.059045    2.293335
C       5.004753    4.002080    4.688205
C       4.183053    4.951920    2.208070
N       8.099179    0.968106    4.279773
N       1.088627    7.985894    2.616502
N       8.701807    1.584374    3.227808
N       0.485999    7.369626    3.668466
H       6.300222    1.387655    5.206363
H       2.887584    7.566345    1.689911
H       8.076015    3.203670    2.106522
H       1.111791    5.750330    4.789752
H       3.497921    5.180605    5.392197
H       5.689884    3.773395    1.504077
H       5.285556    3.677497    5.535736
H       3.902250    5.276503    1.360538
