16

C          6.92484        1.60851        4.52551
C          3.41244        6.41409        2.48833
C          7.89992        2.60567        2.82339
C          2.43734        5.41693        4.19045
C          6.80169        2.62059        3.62541
C          3.53559        5.40202        3.38843
C          4.68150        4.43848        3.48044
N          8.09918        0.96811        4.27977
N          2.23810        7.05450        2.73407
N          8.70181        1.58437        3.22781
N          1.63547        6.43823        3.78603
H          6.30022        1.38766        5.20636
H          4.03706        6.63495        1.80748
H          8.07601        3.20367        2.10652
H          2.26127        4.81893        4.90732
C          5.65578        3.58412        3.53340
