65
[NO NAME]
C         -0.08930       12.67860        0.00000
C          4.47840       10.64490        0.00000
C          7.82410       14.36060        0.00000
Q          5.32410       18.69070        0.00000
Q          0.43340       17.65120        0.00000
C          5.51800        5.75420        0.00000
C          1.80230        2.40850        0.00000
C          2.84180       -2.48220        0.00000
C          7.59710       -4.02730        0.00000
C         11.31280       -0.68170        0.00000
C         10.27330        4.20910        0.00000
C         -0.87390       -5.82790        0.00000
C          0.16570      -10.71860        0.00000
C         -3.18000      -14.43440        0.00000
Q         -0.68000      -18.76450        0.00000
Q          4.21080      -17.72490        0.00000
C          4.73340      -12.75230        0.00000
C         16.06810       -2.22680        0.00000
C         19.78380        1.11890        0.00000
C         24.53910       -0.42620        0.00000
C         28.25490        2.91950        0.00000
C         33.01010        1.37440        0.00000
C         36.72590        4.72000        0.00000
C         41.48110        3.17490        0.00000
C         35.68630        9.61080        0.00000
C         30.93100       11.15590        0.00000
C         39.40200       12.95640        0.00000
C         45.19690        6.52060        0.00000
C         42.52070       -1.71580        0.00000
H         -0.98304       12.16261        0.00000
H          8.85045       14.25272        0.00000
H          5.72454       19.59008        0.00000
H          0.82081        2.72741        0.00000
H          7.81166       -5.03675        0.00000
H         11.04023        4.89964        0.00000
H         -1.89153       -5.49726        0.00000
H         -1.66906       -6.54388        0.00000
H         -4.20635      -14.32653        0.00000
H         -1.08043      -19.66389        0.00000
H          5.62714      -12.23630        0.00000
H         16.29057       -3.27342        0.00000
H         17.08573       -2.55744        0.00000
H         19.56133        2.16552        0.00000
H         20.57896        1.83487        0.00000
H         24.76156       -1.47282        0.00000
H         25.55673       -0.75685        0.00000
H         28.03244        3.96612        0.00000
H         29.05007        3.63546        0.00000
H         33.23255        0.32778        0.00000
H         34.02773        1.04374        0.00000
H         37.52107        5.43597        0.00000
H         42.49873        2.84426        0.00000
H         35.46384       10.65742        0.00000
H         30.70854       12.20252        0.00000
H         30.13583       10.43993        0.00000
H         29.91337       11.48655        0.00000
H         40.41963       12.62575        0.00000
H         39.17954       14.00302        0.00000
H         40.19717       13.67237        0.00000
H         46.21453        6.18995        0.00000
H         44.97444        7.56722        0.00000
H         45.99207        7.23657        0.00000
H         41.72554       -2.43178        0.00000
H         43.53833       -2.04644        0.00000
H         42.74318       -2.76242        0.00000
