16
[NO NAME]
C         11.63340        9.24880        0.00000
C         16.20120        7.21520        0.00000
C         19.54680       10.93090        0.00000
Q         17.04680       15.26100        0.00000
Q         12.15610       14.22150        0.00000
C         17.24070        2.32440        0.00000
C         13.89510       -1.39130        0.00000
C         16.39510       -5.72140        0.00000
Q         21.28580       -4.68190        0.00000
Q         21.80850        0.29070        0.00000
H         10.73966        8.73279        0.00000
H         20.57315       10.82303        0.00000
H         11.42448       14.88027        0.00000
H         12.86875       -1.28343        0.00000
H         15.97534       -6.66418        0.00000
H         22.01742       -5.34067        0.00000
